****** HSPICE -- Q-2020.03 linux64 (Mar  8 2020) ******
Input File: input.ckt
lic:
lic: FLEXlm: SDK_12.6
lic: USER:   deven2               HOSTNAME: jump.ece.uic.edu
lic: HOSTID: "14feb5c7d443"       PID:      10907
lic: Using FLEXlm license file:
lic: 27000@10.7.46.20
lic: Checkout 1 hspice
lic: License/Maintenance for hspice will expire on 25-apr-2022/2020.03
lic: 1(in_use)/50(total) FLOATING license(s) on SERVER 27000@10.7.46.20
lic:

 init: begin read circuit files, cpu clock= 6.15E+00
       option artist =     2.00
       option ingold =     2.00
       option parhier = local
       option psf =     2.00
 init: end read circuit files, cpu clock= 6.16E+00 peak memory=     402 mb
 init: begin check errors, cpu clock= 6.16E+00
 init: end check errors, cpu clock= 6.17E+00 peak memory=     404 mb
 init: begin setup matrix, pivot=     0 cpu clock= 6.17E+00
       establish matrix -- done, cpu clock= 6.17E+00 peak memory=     404 mb
       re-order matrix -- done, cpu clock= 6.17E+00 peak memory=     404 mb
 init: end setup matrix, cpu clock= 6.21E+00 peak memory=     404 mb
 dcop: begin dcop, cpu clock= 6.21E+00
 dcop: end dcop, cpu clock= 6.24E+00 peak memory=     404 mb tot_iter=       8
 sweep: tran tran0    begin, stop_t=  2.00E-09 #sweeps=2001 cpu clock= 6.25E+00
 tran: time= 2.2573E-10 tot_iter=      72 conv_iter=      26 cpu clock= 6.28E+00
 tran: time= 4.7575E-10 tot_iter=      78 conv_iter=      29 cpu clock= 6.28E+00
 tran: time= 6.1089E-10 tot_iter=     161 conv_iter=      58 cpu clock= 6.31E+00
 tran: time= 8.2481E-10 tot_iter=     169 conv_iter=      62 cpu clock= 6.31E+00
 tran: time= 1.0000E-09 tot_iter=     173 conv_iter=      64 cpu clock= 6.31E+00
 tran: time= 1.2054E-09 tot_iter=     251 conv_iter=      92 cpu clock= 6.34E+00
 tran: time= 1.4523E-09 tot_iter=     257 conv_iter=      95 cpu clock= 6.34E+00
 tran: time= 1.6012E-09 tot_iter=     339 conv_iter=     124 cpu clock= 6.37E+00
 tran: time= 1.8715E-09 tot_iter=     349 conv_iter=     129 cpu clock= 6.37E+00
 tran: time= 2.0000E-09 tot_iter=     353 conv_iter=     131 cpu clock= 6.37E+00
 sweep: tran tran0    end, cpu clock= 6.37E+00 peak memory=     404 mb
>info:         ***** hspice job concluded
 lic: Release hspice token(s)
